! Auto-generated by scripts/support/build_cases.py from elmer_project.json
! (case 'case_heat_flux_control_mesh_physical_parity_conformal'). Do not edit; edit the case definition instead.

Header
  CHECK KEYWORDS Warn
  Mesh DB "work/meshes" "mesh_physical_parity_conformal"
End

Simulation
  Max Output Level = 5
  Coordinate System = Cartesian 3D
  Simulation Type = Steady State
  Steady State Max Iterations = 1
  Output Intervals = 1
  Solver Input File = generated/cases/case_heat_flux_control_mesh_physical_parity_conformal.sif
  Output File = ../work/meshes/mesh_physical_parity_conformal/case_heat_flux_control_mesh_physical_parity_conformal.result
End

Initial Condition 1
  Temperature = 0.15
End

Constants
  Stefan Boltzmann = Real 5.670374419e-8
  TES Bias Current = Real 0.000715
  TES Shunt Resistance = Real 0.0039
  TES R0 = Real 0.015527
  TES Rmin = Real 1e-06
  TES Alpha = Real 256.46
  TES Beta = Real 5.03
  TES I0 = Real 0.000143537344932311
  TES Tc = Real 0.1709
  TES T0 = Real 0.16857
  TES Volume = Real 4e-14
  TES Inductance = Real 1.23e-08
End

Solver 1
  Equation = Heat Equation
  Procedure = "HeatSolve" "HeatSolver"
  Variable = Temperature
  Variable DOFs = 1
  Calculate Loads = Logical True
  Calculate Boundary Fluxes = Logical True
  Nonlinear System Max Iterations = 1
  Nonlinear System Convergence Tolerance = 1e-10
  Nonlinear System Relaxation Factor = 1.0
  Linear System Solver = Direct
  Linear System Direct Method = Umfpack
  Apply Mortar BCs = False
  Steady State Convergence Tolerance = 1e-10
End

Solver 2
  Exec Solver = After Simulation
  Equation = SaveScalars
  Procedure = "SaveData" "SaveScalars"
  Filename = "case_heat_flux_control_mesh_physical_parity_conformal_boundary_reactions.dat"
  Variable 1 = Temperature Loads
  Operator 1 = boundary sum
  Mask Name 1 = reaction_hot
  Variable 2 = Temperature Loads
  Operator 2 = boundary sum
  Mask Name 2 = reaction_bath
  Variable 3 = Temperature
  Operator 3 = diffusive flux
  Mask Name 3 = reaction_hot
  Variable 4 = Temperature
  Operator 4 = diffusive flux
  Mask Name 4 = reaction_bath
End

Equation 1
  Name = "Heat"
  Active Solvers(2) = 1 2
End

Material 1
  Name = "Pb"
  Density = 9860
  Heat Capacity = 3.26e-05
  Heat Conductivity = 0.0168
End

Material 2
  Name = "TES"
  Density = 15695
  Heat Capacity = 0.00125
  Heat Conductivity = 68
End

Material 3
  Name = "Stycast"
  Density = 2400
  Heat Capacity = 0.00122
  Heat Conductivity = 2.69094e-06
End

Material 4
  Name = "SiO2"
  Density = 2200
  Heat Capacity = 0.000124
  Heat Conductivity = 0.000494
End

Material 5
  Name = "Si"
  Density = 2332
  Heat Capacity = 1.24e-06
  Heat Conductivity = 0.37
End

Material 6
  Name = "SiNx"
  Density = 3400
  Heat Capacity = 2.43e-05
  Heat Conductivity = 0.000102
End

Material 7
  Name = "Membrane"
  Density = 2387
  Heat Capacity = 9.819999999999999e-06
  ! Linear-control override: k_membrane frozen at the reference temperature
  Heat Conductivity = 1.93339568802869e-05
End

Body 1
  Target Bodies(1) = 100
  Name = "abs"
  Equation = 1
  Material = 1
  Initial Condition = 1
End

Body 2
  Target Bodies(1) = 101
  Name = "TES"
  Equation = 1
  Material = 2
  Initial Condition = 1
End

Body 3
  Target Bodies(1) = 102
  Name = "Stycast"
  Equation = 1
  Material = 3
  Initial Condition = 1
End

Body 4
  Target Bodies(1) = 103
  Name = "Membrane_SiNx"
  Equation = 1
  Material = 7
  Initial Condition = 1
End

Body 5
  Target Bodies(1) = 104
  Name = "SiO2_1"
  Equation = 1
  Material = 4
  Initial Condition = 1
End

Body 6
  Target Bodies(1) = 105
  Name = "Si_1"
  Equation = 1
  Material = 5
  Initial Condition = 1
End

Body 7
  Target Bodies(1) = 106
  Name = "SiNx"
  Equation = 1
  Material = 6
  Initial Condition = 1
End

Body 8
  Target Bodies(1) = 107
  Name = "Si_2"
  Equation = 1
  Material = 5
  Initial Condition = 1
End

Body 9
  Target Bodies(1) = 108
  Name = "SiO2_2"
  Equation = 1
  Material = 4
  Initial Condition = 1
End

Body 10
  Target Bodies(1) = 109
  Name = "Membrane_Si1"
  Equation = 1
  Material = 7
  Initial Condition = 1
End

Boundary Condition 1
  Target Boundaries(1) = 1804
  Name = "bath on SiO2_2__zmin"
  Temperature = 0.15
  reaction_bath = Logical True
End

Boundary Condition 2
  Target Boundaries(1) = 1005
  Name = "controlled hot boundary"
  Temperature = 0.16
  reaction_hot = Logical True
End
