! Auto-generated by scripts/support/build_cases.py from elmer_project.json
! (case 'case_tes_mpi_comsol_grid_coarse_tail'). Do not edit; edit the case definition instead.

Header
  CHECK KEYWORDS Warn
  Mesh DB "work/meshes" "mesh_refined_3x_repart_x"
End

Simulation
  Max Output Level = 5
  Coordinate System = Cartesian 3D
  Simulation Type = Transient
  Timestepping Method = BDF
  BDF Order = 1
  Timestep Sizes(209) = 1.47634024696647e-06 1.07634024696647e-06 2.15268049393294e-06 4.30536098786588e-06 8.61072197573176e-06 1.72214439514635e-05 3.4442887902927e-05 3.4442887902927e-05 6.88857758058541e-05 0.000137771551611708 0.000189614008873657 0.00025 0.00025 0.0005 0.0005 0.0005 0.0005 0.0005 0.0005 0.0005 0.0005 0.0005 0.0005 0.0005 0.0005 0.0005 0.0005 0.0005 0.0005 0.0005 0.0005 0.000
  Timestep Intervals(209) = 1 1 1 1 1 1 1 1 1 1 1 1 1 1 1 1 1 1 1 1 1 1 1 1 1 1 1 1 1 1 1 1 1 1 1 1 1 1 1 1 1 1 1 1 1 1 1 1 1 1 1 1 1 1 1 1 1 1 1 1 1 1 1 1 1 1 1 1 1 1 1 1 1 1 1 1 1 1 1 1 1 1 1 1 1 1 1 1 1 1 1 1 1 1 1 1 1 1 1 1 1 1 1 1 1 1 1 1 1 1 1 1 1 1 1 1 1 1 1 1 1 1 1 1 1 1 1 1 1 1 1 1 1 1 1 1 1 1 1 1 1 1 1 1 1 1 1 1 1 1 1 1 1 1 1 1 1 1 1 1 1 1 1 1 1 1 1 1 1 1 1 1 1 1 1 1 1 1 1 1 1 1 1 1 1 1 
  Output Intervals(209) = 999999 999999 999999 999999 999999 999999 999999 999999 999999 999999 999999 999999 999999 999999 999999 999999 999999 999999 999999 999999 999999 999999 999999 999999 999999 999999 999999 999999 999999 999999 999999 999999 999999 999999 999999 999999 999999 999999 999999 999999 999999 999999 999999 999999 999999 999999 999999 999999 999999 999999 999999 999999 999999 999
  Steady State Max Iterations = 1
  Solver Input File = generated/cases/case_tes_mpi_comsol_grid_coarse_tail.sif
  Restart File = case_tes_steady_3x_refined.result
  Restart Position = 0
  Restart Time = Real 0
  Output File = case_tes_mpi_comsol_grid_coarse_tail.result
End

Initial Condition 1
  Temperature = 0.16857
End

Constants
  Stefan Boltzmann = Real 5.670374419e-8
  TES Series File = String "tes_mpi_comsol_grid_coarse_tail_series.csv"
  TES Bias Current = Real 0.000715
  TES Shunt Resistance = Real 0.0039
  TES R0 = Real 0.015527
  TES Rmin = Real 1e-06
  TES Alpha = Real 256.46
  TES Beta = Real 5.03
  TES I0 = Real 0.000143537344932311
  TES Tc = Real 0.1709
  TES T0 = Real 0.16857
  TES Volume = Real 4e-14
  TES Inductance = Real 1.23e-08
  TES Iteration Series File = String "tes_mpi_comsol_grid_coarse_tail_iterations.csv"
  Pulse Energy = Real 2.134099276488e-13
  Pulse Start Time = Real 0.02002
  Pulse Duration = Real 1e-09
  Pulse Sigma = Real 5e-05
! Pulse center: auto (absorber centroid of mesh_refined_3x_repart_x)
  Pulse Center X = Real 6.37427785022e-21
  Pulse Center Y = Real 0.001
  Pulse Center Z = Real 0.00056216
! FE integral of the nodal Gaussian over the absorber of mesh_refined_3x_repart_x
! (recomputed automatically at build time)
  Pulse Discrete Norm = Real 1.92452795676361e-12
End

Solver 1
  Equation = Heat Equation
  Procedure = "HeatSolve" "HeatSolver"
  Variable = Temperature
  Variable DOFs = 1
! max iterations 25: headroom for dt-stage boundaries where the coupling loop gain jumps
  "TES Inner Circuit Update" = Logical True
  "TES Body ID" = Integer 2
  Nonlinear System Max Iterations = 25
  Nonlinear System Convergence Tolerance = 3e-07
  Nonlinear System Relaxation Factor = 1.0
! Lumped mass + BDF1 keeps the discrete maximum principle when dt is
! below the element diffusion limit (h^2*rho*c/6k): prevents unphysical
! undershoot around the sharp pulse deposition.
  Lumped Mass Matrix = True
  Linear System Solver = Direct
  Linear System Direct Method = MUMPS
  Apply Mortar BCs = True
  Steady State Convergence Tolerance = 1e-09
End

Equation 1
  Name = "Heat"
  Active Solvers(1) = 1
End

Material 1
  Name = "Pb"
  Density = 9860
  Heat Capacity = 3.26e-05
  Heat Conductivity = 0.0168
End

Material 2
  Name = "TES"
  Density = 15695
  Heat Capacity = 0.00125
  Heat Conductivity = 68
End

Material 3
  Name = "Stycast"
  Density = 2400
  Heat Capacity = 0.00122
  Heat Conductivity = 2.69094e-06
End

Material 4
  Name = "SiO2"
  Density = 2200
  Heat Capacity = 0.000124
  Heat Conductivity = 0.000494
End

Material 5
  Name = "Si"
  Density = 2332
  Heat Capacity = 1.24e-06
  Heat Conductivity = 0.37
End

Material 6
  Name = "SiNx"
  Density = 3400
  Heat Capacity = 2.43e-05
  Heat Conductivity = 0.000102
End

Material 7
  Name = "Membrane"
  Density = 2387
  Heat Capacity = 9.819999999999999e-06
  Heat Conductivity = Variable Temperature
    Real MATC "(7.854e-06)*(0.5*((tx+1.0e-12)+abs(tx-1.0e-12)))^(4.252-1)*0.4*((0.0007)-(0.0005))/(8*((1e-06)+(1.5e-05)+(1e-06))*(0.0005))"
End

Body Force 1
  Name = "MPI-safe circuit updated inside HeatSolve nonlinear iterations"
  Volumetric Heat Source = Variable Temperature
    Real Procedure "tes_parallel_circuit" "TESParallelHeatSource"
End

Body Force 2
  Name = "Rectangular window pulse at the absorber center"
  Volumetric Heat Source = Variable Temperature
    Real Procedure "tes_transient_heat_source_t0" "AbsorberWindowPulseHeatSource"
End

Body 1
  Target Bodies(1) = 100
  Name = "abs"
  Equation = 1
  Material = 1
  Body Force = 2
  Initial Condition = 1
End

Body 2
  Target Bodies(1) = 101
  Name = "TES"
  Equation = 1
  Material = 2
  Body Force = 1
  Initial Condition = 1
End

Body 3
  Target Bodies(1) = 102
  Name = "Stycast"
  Equation = 1
  Material = 3
  Initial Condition = 1
End

Body 4
  Target Bodies(1) = 103
  Name = "Membrane_SiNx"
  Equation = 1
  Material = 7
  Initial Condition = 1
End

Body 5
  Target Bodies(1) = 104
  Name = "SiO2_1"
  Equation = 1
  Material = 4
  Initial Condition = 1
End

Body 6
  Target Bodies(1) = 105
  Name = "Si_1"
  Equation = 1
  Material = 5
  Initial Condition = 1
End

Body 7
  Target Bodies(1) = 106
  Name = "SiNx"
  Equation = 1
  Material = 6
  Initial Condition = 1
End

Body 8
  Target Bodies(1) = 107
  Name = "Si_2"
  Equation = 1
  Material = 5
  Initial Condition = 1
End

Body 9
  Target Bodies(1) = 108
  Name = "SiO2_2"
  Equation = 1
  Material = 4
  Initial Condition = 1
End

Body 10
  Target Bodies(1) = 109
  Name = "Membrane_Si1"
  Equation = 1
  Material = 7
  Initial Condition = 1
End

Boundary Condition 1
  Target Boundaries(1) = 1804
  Name = "bath on SiO2_2__zmin"
  Temperature = 0.15
End

Boundary Condition 2
  Target Boundaries(1) = 1104
  Name = "TES bottom mortar"
  Mortar BC = 3
  Galerkin Projector = True
  Plane Projector = True
End

Boundary Condition 3
  Target Boundaries(1) = 1305
  Name = "Membrane_SiNx top mortar"
End

Boundary Condition 4
  Target Boundaries(1) = 1204
  Name = "Stycast bottom mortar"
  Mortar BC = 5
  Galerkin Projector = True
  Plane Projector = True
End

Boundary Condition 5
  Target Boundaries(1) = 1105
  Name = "TES top mortar"
End

Boundary Condition 6
  Target Boundaries(1) = 1205
  Name = "Stycast top mortar"
  Mortar BC = 7
  Galerkin Projector = True
  Plane Projector = True
End

Boundary Condition 7
  Target Boundaries(1) = 1004
  Name = "Pb bottom mortar"
End
