! Auto-generated by scripts/support/build_cases.py from elmer_project.json
! (case 'case_tes_steady_physical_parity_conformal_hypre_1em06'). Do not edit; edit the case definition instead.

Header
  CHECK KEYWORDS Warn
  Mesh DB "work/meshes" "mesh_physical_parity_conformal"
End

Simulation
  Max Output Level = 5
  Coordinate System = Cartesian 3D
  Simulation Type = Steady State
  Steady State Max Iterations = 1
  Output Intervals = 1
  Solver Input File = generated/cases/case_tes_steady_physical_parity_conformal_hypre_1em06.sif
  Output File = ../work/meshes/mesh_physical_parity_conformal/case_tes_steady_physical_parity_conformal_hypre_1em06.result
End

Initial Condition 1
  Temperature = 0.16857
End

Constants
  Stefan Boltzmann = Real 5.670374419e-8
  TES Series File = String "case_tes_steady_physical_parity_conformal_hypre_1em06_series.csv"
  TES State File = String "work/meshes/mesh_physical_parity_conformal/case_tes_steady_physical_parity_conformal_hypre_1em06.state"
  TES Bias Current = Real 0.000715
  TES Shunt Resistance = Real 0.0039
  TES R0 = Real 0.015527
  TES Rmin = Real 1e-06
  TES Alpha = Real 256.46
  TES Beta = Real 5.03
  TES I0 = Real 0.000143537344932311
  TES Tc = Real 0.1709
  TES T0 = Real 0.16857
  TES Volume = Real 4e-14
  TES Inductance = Real 1.23e-08
  TES Iteration Series File = String "case_tes_steady_physical_parity_conformal_hypre_1em06_iterations.csv"
End

Solver 1
  Equation = "TES Parallel Circuit 1"
  Procedure = "tes_parallel_circuit" "TESParallelCircuitSolver"
  "TES Body ID" = Integer 2
  "TES Circuit Relaxation" = Real 0.04
  "TES Write Series" = Logical True
  Exec Solver = Always
End

Solver 2
  Equation = Heat Equation Coupling 1
  Procedure = "HeatSolve" "HeatSolver"
  Variable = Temperature
  Variable DOFs = 1
  Nonlinear System Max Iterations = 120
  Nonlinear System Convergence Tolerance = 1e-08
  Nonlinear System Relaxation Factor = 1.0
  Linear System Use Hypre = True
  Linear System Solver = Iterative
  Linear System Iterative Method = FlexGMRES
  Linear System Preconditioning = BoomerAMG
  Linear System Max Iterations = 1000
  Linear System Convergence Tolerance = 1e-06
  Linear System Abort Not Converged = True
  Linear System Residual Output = 1
  HYPRE GmRes Dimension = 100
  BoomerAMG Relax Type = 18
  BoomerAMG Coarsen Type = 8
  BoomerAMG Num Sweeps = 1
  BoomerAMG Max Levels = 25
  BoomerAMG Interpolation Type = 6
  BoomerAMG Smooth Type = 0
  BoomerAMG Cycle Type = 1
  BoomerAMG Num Functions = 1
  BoomerAMG Strong Threshold = 0.25
  Apply Mortar BCs = False
  Steady State Convergence Tolerance = 1e-08
End

Equation 1
  Name = "Heat"
  Active Solvers(2) = 1 2
End

Material 1
  Name = "Pb"
  Density = 9860
  Heat Capacity = 3.26e-05
  Heat Conductivity = 0.0168
End

Material 2
  Name = "TES"
  Density = 15695
  Heat Capacity = 0.00125
  Heat Conductivity = 68
End

Material 3
  Name = "Stycast"
  Density = 2400
  Heat Capacity = 0.00122
  Heat Conductivity = 2.69094e-06
End

Material 4
  Name = "SiO2"
  Density = 2200
  Heat Capacity = 0.000124
  Heat Conductivity = 0.000494
End

Material 5
  Name = "Si"
  Density = 2332
  Heat Capacity = 1.24e-06
  Heat Conductivity = 0.37
End

Material 6
  Name = "SiNx"
  Density = 3400
  Heat Capacity = 2.43e-05
  Heat Conductivity = 0.000102
End

Material 7
  Name = "Membrane"
  Density = 2387
  Heat Capacity = 9.819999999999999e-06
  Heat Conductivity = Variable Temperature
    Real MATC "(7.854e-06)*(0.5*((tx+1.0e-12)+abs(tx-1.0e-12)))^(4.252-1)*0.4*((0.0007)-(0.0005))/(8*((1e-06)+(1.5e-05)+(1e-06))*(0.0005))"
End

Body Force 1
  Name = "MPI-safe lumped TES circuit power"
  Volumetric Heat Source = Variable Temperature
    Real Procedure "tes_parallel_circuit" "TESParallelHeatSource"
End

Body 1
  Target Bodies(1) = 100
  Name = "abs"
  Equation = 1
  Material = 1
  Initial Condition = 1
End

Body 2
  Target Bodies(1) = 101
  Name = "TES"
  Equation = 1
  Material = 2
  Body Force = 1
  Initial Condition = 1
End

Body 3
  Target Bodies(1) = 102
  Name = "Stycast"
  Equation = 1
  Material = 3
  Initial Condition = 1
End

Body 4
  Target Bodies(1) = 103
  Name = "Membrane_SiNx"
  Equation = 1
  Material = 7
  Initial Condition = 1
End

Body 5
  Target Bodies(1) = 104
  Name = "SiO2_1"
  Equation = 1
  Material = 4
  Initial Condition = 1
End

Body 6
  Target Bodies(1) = 105
  Name = "Si_1"
  Equation = 1
  Material = 5
  Initial Condition = 1
End

Body 7
  Target Bodies(1) = 106
  Name = "SiNx"
  Equation = 1
  Material = 6
  Initial Condition = 1
End

Body 8
  Target Bodies(1) = 107
  Name = "Si_2"
  Equation = 1
  Material = 5
  Initial Condition = 1
End

Body 9
  Target Bodies(1) = 108
  Name = "SiO2_2"
  Equation = 1
  Material = 4
  Initial Condition = 1
End

Body 10
  Target Bodies(1) = 109
  Name = "Membrane_Si1"
  Equation = 1
  Material = 7
  Initial Condition = 1
End

Boundary Condition 1
  Target Boundaries(1) = 1804
  Name = "bath on SiO2_2__zmin"
  Temperature = 0.15
End
