! Auto-generated by scripts/support/build_cases.py from elmer_project.json
! (case 'case_phase24_adaptive_output_smoke'). Do not edit; edit the case definition instead.

Header
  CHECK KEYWORDS Warn
  Mesh DB "work/meshes" "mesh_hybrid_abs_tet_layers_prism_stack17_abs35r50_noextend"
End

Simulation
  Max Output Level = 5
  Coordinate System = Cartesian 3D
  Simulation Type = Transient
  Timestepping Method = BDF
  BDF Order = 2
  Timestep Sizes(1) = 3.1e-05
  Timestep Intervals(1) = 1
  Output Intervals = 0
  Adaptive Timestepping = Logical True
  Adaptive Output Decoupling = Logical True
  Adaptive Time Error = Real 0.002
  Adaptive Relative Tolerance = Real 0.002
  Adaptive Absolute Tolerance = Real 1e-08
  Adaptive Initial Timestep = Real 1e-06
  Adaptive Min Timestep = Real 1e-09
  Adaptive Max Timestep = Real 0.0001
  Adaptive Max Growth = Real 1.5
  Adaptive Max Shrink = Real 0.5
  Adaptive Step Ratio Min = Real 0.5
  Adaptive Step Ratio Max = Real 2.0
  Adaptive Max Rejected = Integer 64
  Requested Output Times(64) = Real 0.02 0.02000049206349206 0.02000098412698413 0.02000147619047619 0.02000196825396825 0.02000246031746032 0.02000295238095238 0.02000344444444445 0.02000393650793651 0.02000442857142857 0.02000492063492064 0.0200054126984127 0.02000590476190476 0.02000639682539683 0.02000688888888889 0.02000738095238095 0.02000787301587302 0.02000836507936508 0.02000885714285714 
  Physical Event Times(2) = Real 0.02002 0.020020001
  Steady State Max Iterations = 1
  Solver Input File = generated/cases/case_phase24_adaptive_output_smoke.sif
  Restart File = ../work/meshes/mesh_hybrid_abs_tet_layers_prism_stack17_abs35r50_noextend/case_tes_steady_hybrid_prism_stack17_abs35r50_noextend_inner_1rank_tight.result
  Restart Position = 0
  Restart Time = Real 0.02
End

Initial Condition 1
  Temperature = 0.16857
End

Constants
  Stefan Boltzmann = Real 5.670374419e-8
  TES Series File = String "case_phase24_adaptive_output_smoke_series.csv"
  TES State File = String "work/meshes/mesh_hybrid_abs_tet_layers_prism_stack17_abs35r50_noextend/phase19_steady.state"
  TES Bias Current = Real 0.000715
  TES Shunt Resistance = Real 0.0039
  TES R0 = Real 0.015527
  TES Rmin = Real 1e-06
  TES Alpha = Real 256.46
  TES Beta = Real 5.03
  TES I0 = Real 0.000143537344932311
  TES Tc = Real 0.1709
  TES T0 = Real 0.16857
  TES Volume = Real 4e-14
  TES Inductance = Real 1.23e-08
  TES Iteration Series File = String "case_phase24_adaptive_output_smoke_iterations.csv"
  Pulse Energy = Real 2.134099276488e-13
  Pulse Start Time = Real 0.02002
  Pulse Duration = Real 1e-09
! Zero is an exact rectangle; a positive value enables COMSOL flc2hs C2 edges.
  Pulse Transition Zone = Real 0
  Pulse Sigma = Real 5e-05
  Pulse Shape = Real 0.0
  Pulse Radius = Real 5e-05
! Pulse center: auto (absorber centroid of mesh_hybrid_abs_tet_layers_prism_stack17_abs35r50_noextend)
  Pulse Center X = Real -6.944353113759999e-21
  Pulse Center Y = Real 0.001
  Pulse Center Z = Real 0.00056216
! FE integral of the nodal gaussian source over the absorber of mesh_hybrid_abs_tet_layers_prism_stack17_abs35r50_noextend
! (recomputed automatically at build time)
  Pulse Discrete Norm = Real 1.98143989094918e-12
End

Solver 1
  Equation = Heat Equation
  Procedure = "HeatSolve" "HeatSolver"
  Variable = Temperature
  Variable DOFs = 1
  Phase24 Vector Assembly = Logical True
  Phase24 Wall Profiling = Logical True
  Phase24 Static Matrix Reuse = Logical True
  "Phase24 Operator Lagging" = String "disabled"
  "Phase24 Operator Lag Threshold" = Real 0.0001
  "Phase24 Operator Lag Max Reuse" = Integer 3
  "Phase24 Operator Lag Residual Growth" = Real 1.25
  "Phase24 Preconditioner Lagging" = String "adaptive"
  "Phase24 Preconditioner Lag Threshold" = Real 0.0001
  "Phase24 Preconditioner Lag Max Age" = Integer 2
  "Phase24 Preconditioner Lag Krylov Relative Growth" = Real 0.5
  "Phase24 Preconditioner Lag Nonlinear Threshold" = Real 0.001
  Phase24 HYPRE Reuse = Logical True
! max iterations 25: headroom for dt-stage boundaries where the coupling loop gain jumps
  "TES Inner Circuit Update" = Logical True
  "TES Body ID" = Integer 8
  "TES Inner Circuit Step Commit" = Logical True
  Nonlinear System Max Iterations = 25
  Nonlinear System Convergence Tolerance = 3e-07
  Nonlinear System Relaxation Factor = 1.0
! Lumped mass + BDF1 keeps the discrete maximum principle when dt is
! below the element diffusion limit (h^2*rho*c/6k): prevents unphysical
! undershoot around the sharp pulse deposition.
  Lumped Mass Matrix = True
  Linear System Use Hypre = True
  Linear System Solver = Iterative
  Linear System Iterative Method = FlexGMRES
  Linear System Preconditioning = BoomerAMG
  Linear System Max Iterations = 2000
  Linear System Convergence Tolerance = 5e-07
  Linear System Abort Not Converged = True
  Linear System Residual Output = 1
  HYPRE GmRes Dimension = 100
  HYPRE GPU = False
  BoomerAMG Relax Type = 18
  BoomerAMG Coarsen Type = 8
  BoomerAMG Num Sweeps = 1
  BoomerAMG Max Levels = 25
  BoomerAMG Interpolation Type = 6
  BoomerAMG Smooth Type = 0
  BoomerAMG Cycle Type = 1
  BoomerAMG Num Functions = 1
  BoomerAMG Strong Threshold = 0.25
  Linear System Save = True
  Linear System Save Slot = String "linear solve"
  Linear System Save Prefix = String "case_phase24_hypre_cpu_smoke_7step"
  Linear System Save Continuous Numbering = True
  Linear System Save Skip Zeros = True
  Apply Mortar BCs = True
  Steady State Convergence Tolerance = 1e-09
End

Equation 1
  Name = "Heat"
  Active Solvers(1) = 1
End

Material 1
  Name = "Pb"
  Density = 9860
  Heat Capacity = 3.26e-05
  Heat Conductivity = 0.0168
End

Material 2
  Name = "TES"
  Density = 15695
  Heat Capacity = 0.00125
  Heat Conductivity = 68
End

Material 3
  Name = "Stycast"
  Density = 2400
  Heat Capacity = 0.00122
  Heat Conductivity = 2.69094e-06
End

Material 4
  Name = "SiO2"
  Density = 2200
  Heat Capacity = 0.000124
  Heat Conductivity = 0.000494
End

Material 5
  Name = "Si"
  Density = 2332
  Heat Capacity = 1.24e-06
  Heat Conductivity = 0.37
End

Material 6
  Name = "SiNx"
  Density = 3400
  Heat Capacity = 2.43e-05
  Heat Conductivity = 0.000102
End

Material 7
  Name = "Membrane"
  Density = 2387
  Heat Capacity = 9.819999999999999e-06
  Heat Conductivity = Variable Temperature
    Real MATC "(7.854e-06)*(0.5*((tx+1.0e-12)+abs(tx-1.0e-12)))^(4.252-1)*0.4*((0.0007)-(0.0005))/(8*((1e-06)+(1.5e-05)+(1e-06))*(0.0005))"
End

Body Force 1
  Name = "MPI-safe circuit updated inside HeatSolve nonlinear iterations"
  Volumetric Heat Source = Variable Temperature
    Real Procedure "tes_parallel_circuit" "TESParallelHeatSource"
End

Body Force 2
  Name = "Rectangular window pulse at the absorber center"
  Volumetric Heat Source = Variable Temperature
    Real Procedure "tes_transient_heat_source_t0" "AbsorberWindowPulseHeatSource"
End

Body 1
  Target Bodies(1) = 1
  Name = "SiO2_2"
  Equation = 1
  Material = 4
  Initial Condition = 1
End

Body 2
  Target Bodies(1) = 2
  Name = "Si_2"
  Equation = 1
  Material = 5
  Initial Condition = 1
End

Body 3
  Target Bodies(1) = 3
  Name = "SiO2_1"
  Equation = 1
  Material = 4
  Initial Condition = 1
End

Body 4
  Target Bodies(1) = 4
  Name = "Si_1"
  Equation = 1
  Material = 5
  Initial Condition = 1
End

Body 5
  Target Bodies(1) = 5
  Name = "Membrane_Si1"
  Equation = 1
  Material = 7
  Initial Condition = 1
End

Body 6
  Target Bodies(1) = 6
  Name = "SiNx"
  Equation = 1
  Material = 6
  Initial Condition = 1
End

Body 7
  Target Bodies(1) = 7
  Name = "Membrane_SiNx"
  Equation = 1
  Material = 7
  Initial Condition = 1
End

Body 8
  Target Bodies(1) = 8
  Name = "TES"
  Equation = 1
  Material = 2
  Body Force = 1
  Initial Condition = 1
End

Body 9
  Target Bodies(1) = 9
  Name = "Stycast"
  Equation = 1
  Material = 3
  Initial Condition = 1
End

Body 10
  Target Bodies(1) = 10
  Name = "abs"
  Equation = 1
  Material = 1
  Body Force = 2
  Initial Condition = 1
End

Boundary Condition 1
  Target Boundaries(1) = 30
  Name = "bath on SiO2_2__zmin"
  Temperature = 0.15
End

Boundary Condition 2
  Target Boundaries(1) = 24
  Name = "TES bottom mortar"
  Mortar BC = 3
  Galerkin Projector = True
  Plane Projector = True
End

Boundary Condition 3
  Target Boundaries(1) = 23
  Name = "Membrane_SiNx top mortar"
End

Boundary Condition 4
  Target Boundaries(1) = 26
  Name = "Stycast bottom mortar"
  Mortar BC = 5
  Galerkin Projector = True
  Plane Projector = True
End

Boundary Condition 5
  Target Boundaries(1) = 25
  Name = "TES top mortar"
End

Boundary Condition 6
  Target Boundaries(1) = 27
  Name = "Stycast top mortar"
  Mortar BC = 7
  Galerkin Projector = True
  Plane Projector = True
End

Boundary Condition 7
  Target Boundaries(1) = 28
  Name = "Pb bottom mortar"
End
