! Auto-generated by scripts/support/build_cases.py from elmer_project.json
! (case 'case_tes_steady_singlepixel_prod_v2'). Do not edit; edit the case definition instead.

Header
  CHECK KEYWORDS Warn
  Mesh DB "work/meshes" "mesh_singlepixel_prod_v2"
End

Simulation
  Max Output Level = 5
  Coordinate System = Cartesian 3D
  Simulation Type = Steady State
  Steady State Max Iterations = 1
  Output Intervals = 1
  Solver Input File = generated/cases/case_tes_steady_singlepixel_prod_v2.sif
  Output File = ../work/meshes/mesh_singlepixel_prod_v2/case_tes_steady_singlepixel_prod_v2.result
End

Initial Condition 1
  Temperature = 0.16857
End

Constants
  Stefan Boltzmann = Real 5.670374419e-8
  TES Series File = String "case_tes_steady_singlepixel_prod_v2_series.csv"
  TES State File = String "mesh_singlepixel_prod_v2/prod_v2_steady.state"
  TES Bias Current = Real 0.000715
  TES Shunt Resistance = Real 0.0039
  TES R0 = Real 0.015527
  TES Rmin = Real 1e-06
  TES Alpha = Real 256.46
  TES Beta = Real 5.03
  TES I0 = Real 0.000143537344932311
  TES Tc = Real 0.1709
  TES T0 = Real 0.16857
  TES Volume = Real 4e-14
  TES Inductance = Real 1.23e-08
  TES Iteration Series File = String "case_tes_steady_singlepixel_prod_v2_iterations.csv"
End

Solver 1
  Equation = Heat Equation
  Procedure = "HeatSolve" "HeatSolver"
  Variable = Temperature
  Variable DOFs = 1
  "TES Inner Circuit Update" = Logical True
  "TES Body ID" = Integer 8
  Nonlinear System Max Iterations = 120
  Nonlinear System Convergence Tolerance = 1e-08
  Nonlinear System Relaxation Factor = 1.0
  Linear System Solver = Direct
  Linear System Direct Method = MUMPS
  Apply Mortar BCs = True
  Steady State Convergence Tolerance = 1e-08
End

Equation 1
  Name = "Heat"
  Active Solvers(1) = 1
End

Material 1
  Name = "Pb"
  Density = 9860
  Heat Capacity = 3.26e-05
  Heat Conductivity = 0.0168
End

Material 2
  Name = "TES"
  Density = 15695
  Heat Capacity = 0.00125
  Heat Conductivity = 68
End

Material 3
  Name = "Stycast"
  Density = 2400
  Heat Capacity = 0.00122
  Heat Conductivity = 2.69094e-06
End

Material 4
  Name = "SiO2"
  Density = 2200
  Heat Capacity = 0.000124
  Heat Conductivity = 0.000494
End

Material 5
  Name = "Si"
  Density = 2332
  Heat Capacity = 1.24e-06
  Heat Conductivity = 0.37
End

Material 6
  Name = "SiNx"
  Density = 3400
  Heat Capacity = 2.43e-05
  Heat Conductivity = 0.000102
End

Material 7
  Name = "Membrane"
  Density = 2387
  Heat Capacity = 9.819999999999999e-06
  Heat Conductivity = Variable Temperature
    Real MATC "(7.854e-06)*(0.5*((tx+1.0e-12)+abs(tx-1.0e-12)))^(4.252-1)*0.4*((0.0007)-(0.0005))/(8*((1e-06)+(1.5e-05)+(1e-06))*(0.0005))"
End

Body Force 1
  Name = "MPI-safe circuit updated inside HeatSolve nonlinear iterations"
  Volumetric Heat Source = Variable Temperature
    Real Procedure "tes_parallel_circuit" "TESParallelHeatSource"
End

Body 1
  Target Bodies(1) = 1
  Name = "SiO2_2"
  Equation = 1
  Material = 4
  Initial Condition = 1
End

Body 2
  Target Bodies(1) = 2
  Name = "Si_2"
  Equation = 1
  Material = 5
  Initial Condition = 1
End

Body 3
  Target Bodies(1) = 3
  Name = "SiO2_1"
  Equation = 1
  Material = 4
  Initial Condition = 1
End

Body 4
  Target Bodies(1) = 4
  Name = "Si_1"
  Equation = 1
  Material = 5
  Initial Condition = 1
End

Body 5
  Target Bodies(1) = 5
  Name = "Membrane_Si1"
  Equation = 1
  Material = 7
  Initial Condition = 1
End

Body 6
  Target Bodies(1) = 6
  Name = "SiNx"
  Equation = 1
  Material = 6
  Initial Condition = 1
End

Body 7
  Target Bodies(1) = 7
  Name = "Membrane_SiNx"
  Equation = 1
  Material = 7
  Initial Condition = 1
End

Body 8
  Target Bodies(1) = 8
  Name = "TES"
  Equation = 1
  Material = 2
  Body Force = 1
  Initial Condition = 1
End

Body 9
  Target Bodies(1) = 9
  Name = "Stycast"
  Equation = 1
  Material = 3
  Initial Condition = 1
End

Body 10
  Target Bodies(1) = 10
  Name = "abs"
  Equation = 1
  Material = 1
  Initial Condition = 1
End

Boundary Condition 1
  Target Boundaries(1) = 30
  Name = "bath on SiO2_2__zmin"
  Temperature = 0.15
End

Boundary Condition 2
  Target Boundaries(1) = 24
  Name = "TES bottom mortar"
  Mortar BC = 3
  Galerkin Projector = True
  Plane Projector = True
End

Boundary Condition 3
  Target Boundaries(1) = 23
  Name = "Membrane_SiNx top mortar"
End

Boundary Condition 4
  Target Boundaries(1) = 26
  Name = "Stycast bottom mortar"
  Mortar BC = 5
  Galerkin Projector = True
  Plane Projector = True
End

Boundary Condition 5
  Target Boundaries(1) = 25
  Name = "TES top mortar"
End

Boundary Condition 6
  Target Boundaries(1) = 27
  Name = "Stycast top mortar"
  Mortar BC = 7
  Galerkin Projector = True
  Plane Projector = True
End

Boundary Condition 7
  Target Boundaries(1) = 28
  Name = "Pb bottom mortar"
End
