! Auto-generated by scripts/support/build_cases.py from elmer_project.json
! (case 'case_dual_base15x_steady'). Do not edit; edit the case definition instead.

Header
  CHECK KEYWORDS Warn
  Mesh DB "." "mesh_dual_base_15x"
End

Simulation
  Max Output Level = 5
  Coordinate System = Cartesian 3D
  Simulation Type = Steady State
  Steady State Max Iterations = 1
  Output Intervals = 1
  Solver Input File = generated/cases/case_dual_base15x_steady.sif
  Output File = case_dual_base15x_steady.result
End

Initial Condition 1
  Temperature = 0.16857
End

Constants
  Stefan Boltzmann = Real 5.670374419e-8
  TES L Bias Current = Real 0.000715
  TES L Shunt Resistance = Real 0.0039
  TES L Inductance = Real 1.23e-08
  TES L R0 = Real 0.015527
  TES L Rmin = Real 1e-06
  TES L Alpha = Real 256.46
  TES L Beta = Real 5.03
  TES L I0 = Real 0.000143537344932311
  TES L T0 = Real 0.16857
  TES L Volume = Real 4e-14
  TES L Series File = String "tes_dual_steady_L_series.csv"
  TES L State File = String "mesh_dual_base_15x/case_dual_base15x_steady_L.state"
  TES R Bias Current = Real 0.000715
  TES R Shunt Resistance = Real 0.0039
  TES R Inductance = Real 1.23e-08
  TES R R0 = Real 0.015527
  TES R Rmin = Real 1e-06
  TES R Alpha = Real 256.46
  TES R Beta = Real 5.03
  TES R I0 = Real 0.000143537344932311
  TES R T0 = Real 0.16857
  TES R Volume = Real 4e-14
  TES R Series File = String "tes_dual_steady_R_series.csv"
  TES R State File = String "mesh_dual_base_15x/case_dual_base15x_steady_R.state"
End

Solver 1
  Equation = Heat Equation
  Procedure = "HeatSolve" "HeatSolver"
  Variable = Temperature
  Variable DOFs = 1
  Nonlinear System Max Iterations = 120
  Nonlinear System Convergence Tolerance = 1e-08
  Nonlinear System Relaxation Factor = 1.0
  Linear System Solver = Direct
  Linear System Direct Method = Umfpack
  Apply Mortar BCs = True
  Steady State Convergence Tolerance = 1e-08
End

Equation 1
  Name = "Heat"
  Active Solvers(1) = 1
End

Material 1
  Name = "Pb"
  Density = 9860
  Heat Capacity = 3.26e-05
  Heat Conductivity = 0.0168
End

Material 2
  Name = "TES"
  Density = 15695
  Heat Capacity = 0.00125
  Heat Conductivity = 68
End

Material 3
  Name = "Stycast"
  Density = 2400
  Heat Capacity = 0.00122
  Heat Conductivity = 2.69094e-06
End

Material 4
  Name = "SiO2"
  Density = 2200
  Heat Capacity = 0.000124
  Heat Conductivity = 0.000494
End

Material 5
  Name = "Si"
  Density = 2332
  Heat Capacity = 1.24e-06
  Heat Conductivity = 0.37
End

Material 6
  Name = "SiNx"
  Density = 3400
  Heat Capacity = 2.43e-05
  Heat Conductivity = 0.000102
End

Material 7
  Name = "Membrane"
  Density = 2387
  Heat Capacity = 9.819999999999999e-06
  Heat Conductivity = Variable Temperature
    Real MATC "(7.854e-06)*(0.5*((tx+1.0e-12)+abs(tx-1.0e-12)))^(4.252-1)*0.4*((0.0007)-(0.0005))/(8*((1e-06)+(1.5e-05)+(1e-06))*(0.0005))"
End

Body Force 1
  Name = "TES L shunt power from local T (implicit circuit, R(T,I) + inductance)"
  Volumetric Heat Source = Variable Temperature
    Real Procedure "tes_transient_heat_source_t0" "TESTransientHeatSourceL"
End

Body Force 2
  Name = "TES R shunt power from local T (implicit circuit, R(T,I) + inductance)"
  Volumetric Heat Source = Variable Temperature
    Real Procedure "tes_transient_heat_source_t0" "TESTransientHeatSourceR"
End

Body 1
  Target Bodies(1) = 100
  Name = "abs"
  Equation = 1
  Material = 1
  Initial Condition = 1
End

Body 2
  Target Bodies(1) = 101
  Name = "TES_L"
  Equation = 1
  Material = 2
  Body Force = 1
  Initial Condition = 1
End

Body 3
  Target Bodies(1) = 102
  Name = "Stycast_L"
  Equation = 1
  Material = 3
  Initial Condition = 1
End

Body 4
  Target Bodies(1) = 103
  Name = "Membrane_SiNx_L"
  Equation = 1
  Material = 7
  Initial Condition = 1
End

Body 5
  Target Bodies(1) = 104
  Name = "SiO2_1_L"
  Equation = 1
  Material = 4
  Initial Condition = 1
End

Body 6
  Target Bodies(1) = 105
  Name = "Si_1_L"
  Equation = 1
  Material = 5
  Initial Condition = 1
End

Body 7
  Target Bodies(1) = 106
  Name = "SiNx_L"
  Equation = 1
  Material = 6
  Initial Condition = 1
End

Body 8
  Target Bodies(1) = 107
  Name = "Si_2_L"
  Equation = 1
  Material = 5
  Initial Condition = 1
End

Body 9
  Target Bodies(1) = 108
  Name = "SiO2_2_L"
  Equation = 1
  Material = 4
  Initial Condition = 1
End

Body 10
  Target Bodies(1) = 109
  Name = "Membrane_Si1_L"
  Equation = 1
  Material = 7
  Initial Condition = 1
End

Body 11
  Target Bodies(1) = 110
  Name = "TES_R"
  Equation = 1
  Material = 2
  Body Force = 2
  Initial Condition = 1
End

Body 12
  Target Bodies(1) = 111
  Name = "Stycast_R"
  Equation = 1
  Material = 3
  Initial Condition = 1
End

Body 13
  Target Bodies(1) = 112
  Name = "Membrane_SiNx_R"
  Equation = 1
  Material = 7
  Initial Condition = 1
End

Body 14
  Target Bodies(1) = 113
  Name = "SiO2_1_R"
  Equation = 1
  Material = 4
  Initial Condition = 1
End

Body 15
  Target Bodies(1) = 114
  Name = "Si_1_R"
  Equation = 1
  Material = 5
  Initial Condition = 1
End

Body 16
  Target Bodies(1) = 115
  Name = "SiNx_R"
  Equation = 1
  Material = 6
  Initial Condition = 1
End

Body 17
  Target Bodies(1) = 116
  Name = "Si_2_R"
  Equation = 1
  Material = 5
  Initial Condition = 1
End

Body 18
  Target Bodies(1) = 117
  Name = "SiO2_2_R"
  Equation = 1
  Material = 4
  Initial Condition = 1
End

Body 19
  Target Bodies(1) = 118
  Name = "Membrane_Si1_R"
  Equation = 1
  Material = 7
  Initial Condition = 1
End

Boundary Condition 1
  Target Boundaries(2) = 1804 2704
  Name = "bath on SiO2_2__zmin"
  Temperature = 0.15
End

Boundary Condition 2
  Target Boundaries(1) = 1104
  Name = "TES_L bottom mortar"
  Mortar BC = 3
  Galerkin Projector = True
  Plane Projector = True
End

Boundary Condition 3
  Target Boundaries(1) = 1305
  Name = "Membrane_SiNx_L top mortar"
End

Boundary Condition 4
  Target Boundaries(1) = 2004
  Name = "TES_R bottom mortar"
  Mortar BC = 5
  Galerkin Projector = True
  Plane Projector = True
End

Boundary Condition 5
  Target Boundaries(1) = 2205
  Name = "Membrane_SiNx_R top mortar"
End

Boundary Condition 6
  Target Boundaries(1) = 1204
  Name = "Stycast_L bottom mortar"
  Mortar BC = 7
  Galerkin Projector = True
  Plane Projector = True
End

Boundary Condition 7
  Target Boundaries(1) = 1105
  Name = "TES_L top mortar"
End

Boundary Condition 8
  Target Boundaries(1) = 2104
  Name = "Stycast_R bottom mortar"
  Mortar BC = 9
  Galerkin Projector = True
  Plane Projector = True
End

Boundary Condition 9
  Target Boundaries(1) = 2005
  Name = "TES_R top mortar"
End

Boundary Condition 10
  Target Boundaries(1) = 1205
  Name = "Stycast_L top mortar"
  Mortar BC = 11
  Galerkin Projector = True
  Plane Projector = True
End

Boundary Condition 11
  Target Boundaries(1) = 1004
  Name = "Pb bottom mortar"
End

Boundary Condition 12
  Target Boundaries(1) = 2105
  Name = "Stycast_R top mortar"
  Mortar BC = 11
  Galerkin Projector = True
  Plane Projector = True
End
